data/irish_network/psse/SummerPeak2013.raw
0,   100.00          / PSS/E-30.3    MON, NOV 18 2013  18:05
AITYTFS Summer Peak 2013

    10,'F_M         ',  38.0000,1,     0.000,     0.000,   2,   1,1.04230,  -8.7317,   2
    11,'FMN LOOP    ',  38.0000,1,     0.000,     0.000,   2,   1,1.05705,  -7.6783,   2
    12,'BEDFORD     ',  38.0000,1,     0.000,     0.000,   1,   1,1.05326,  -7.9286,   2
    13,'M_R         ',  38.0000,1,     0.000,     0.000,   1,   1,1.05798,  -9.5928,   2
    14,'F_I         ',  38.0000,1,     0.000,     0.000,   2,   1,1.04668, -10.8034,   2
    15,'I_M         ',  38.0000,1,     0.000,     0.000,   2,   1,1.06208, -10.4514,   2
  1021,'ARDNACRU    ', 110.0000,1,     0.000,     0.000,   4,   1,1.04844,  -6.8979,   1
  1041,'AGHADA      ', 110.0000,1,     0.000,     0.000,   3,   1,1.04058,  -3.4165,   1
  1042,'AGHADA      ', 220.0000,1,     0.000,     0.000,   3,   1,1.04000,  -0.3151,   1
  1052,'AGHADA_B    ', 220.0000,1,     0.000,     0.000,   3,   1,1.04067,  -0.4496,   1
  1061,'ARIGNA      ', 110.0000,1,     0.000,     0.000,   9,   1,1.04639, -10.6246,   2
  1062,'AGH_AT14    ', 220.0000,1,     0.000,     0.000,   3,   1,1.04000,  -0.3151,   1
  1071,'AGANNYGA    ', 110.0000,1,     0.000,     0.000,   4,   1,1.06390,  -6.9023,   1
  1072,'AGHT2102    ', 220.0000,1,     0.000,     0.000,   3,   1,1.03996,  -0.3302,   1
  1081,'AHANE       ', 110.0000,1,     0.000,     0.000,   7,   1,1.04890,  -6.2574,   2
  1101,'ANNER       ', 110.0000,1,     0.000,     0.000,   5,   1,1.04279, -11.0173,   5
  1121,'ARKLOW      ', 110.0000,1,     0.000,     0.000,   6,   1,1.06213,  -7.7157,   1
  1122,'ARKLOW      ', 220.0000,1,     0.000,     0.000,   6,   1,1.05904,  -6.6641,   1
  1141,'ATHLONE     ', 110.0000,1,     0.000,     0.000,   9,   1,1.06948,  -9.0706,   1
  1161,'AUGHINIS    ', 110.0000,1,     0.000,     0.000,   7,   1,1.05000,  -1.3065,   1
  1181,'ARVA        ', 110.0000,1,     0.000,     0.000,  10,   1,1.04075, -12.0478,   1
  1201,'ARTANE      ', 110.0000,1,     0.000,     0.000,   1,   1,1.05898,  -5.6292,   2
  1221,'ATHY        ', 110.0000,1,     0.000,     0.000,   8,   1,1.04853,  -8.9332,   1
  1231,'BALLYWAT    ', 110.0000,1,     0.000,     0.000,   6,   1,1.05697,  -8.0044,   4
  1251,'BOOLTIAG    ', 110.0000,1,     0.000,     0.000,   4,   1,1.05000,  -7.6561,   2
  1271,'BALTRASN    ', 110.0000,1,     0.000,     0.000,  10,   1,1.04710,  -8.4815,   1
  1281,'BALLYLIC    ', 110.0000,1,     0.000,     0.000,   3,   1,1.04546,  -4.4429,   2
  1301,'BALLYBEG    ', 110.0000,1,     0.000,     0.000,   6,   1,1.05921,  -7.9376,   1
  1321,'BLAKE       ', 110.0000,1,     0.000,     0.000,   8,   1,1.04994,  -8.0875,   2
  1341,'BINBANE     ', 110.0000,1,     0.000,     0.000,   9,   1,1.00602, -13.7717,   2
  1351,'BARODA      ', 110.0000,1,     0.000,     0.000,   8,   1,1.05326,  -8.3376,   1
  1361,'BALLYDIN    ', 110.0000,1,     0.000,     0.000,   5,   1,1.03819, -10.5844,   1
  1381,'BARNAHEL    ', 110.0000,1,     0.000,     0.000,   3,   1,1.03883,  -3.9572,   1
  1391,'BARNAHEL    ', 110.0000,1,     0.000,     0.000,   3,   1,1.04884,  -4.1749,   1
  1401,'BELLACOR    ', 110.0000,1,     0.000,     0.000,   9,   1,1.04246, -12.8260,   1
  1421,'BLACKROC    ', 110.0000,1,     0.000,     0.000,   1,   1,1.05708,  -7.8759,   2
  1441,'BANDON      ', 110.0000,1,     0.000,     0.000,   3,   1,1.03952,  -5.3437,   1
  1451,'CLOGHRAN    ', 110.0000,1,     0.000,     0.000,   1,   1,1.05434,  -7.3534,   1
  1461,'BARRYMOR    ', 110.0000,1,     0.000,     0.000,   5,   1,1.03739,  -6.7981,   2
  1481,'BUTLERST    ', 110.0000,1,     0.000,     0.000,   5,   1,1.03389,  -9.7008,   1
  1501,'BRINNY      ', 110.0000,1,     0.000,     0.000,   3,   1,1.03931,  -5.3563,   5
  1541,'BANOGE      ', 110.0000,1,     0.000,     0.000,   6,   1,1.05557,  -8.2593,   1
  1551,'BOGGERAG    ', 110.0000,1,     0.000,     0.000,   3,   1,1.05000,   0.1798,   1
  1581,'CABRA       ', 110.0000,1,     0.000,     0.000,   1,   1,1.05844,  -5.6631,   2
  1601,'CLASHAVO    ', 110.0000,1,     0.000,     0.000,   3,   1,1.04334,  -3.7012,   1
  1602,'CLASHAVO    ', 220.0000,1,     0.000,     0.000,   3,   1,1.04794,  -1.7855,   1
  1611,'CLONKEEN    ', 110.0000,1,     0.000,     0.000,   7,   1,1.04895,  -2.2653,   1
  1621,'COOLROE     ', 110.0000,1,     0.000,     0.000,   3,   1,1.03304,  -4.9797,   1
  1631,'CORDERRY    ', 110.0000,1,     0.000,     0.000,   9,   1,1.05000, -10.7177,   1
  1641,'CASHLA      ', 110.0000,1,     0.000,     0.000,   9,   1,1.05834,  -7.7031,   1
  1642,'CASHLA      ', 220.0000,1,     0.000,     0.000,   9,   1,1.05187,  -5.1350,   1
  1651,'CLAHANE     ', 110.0000,1,     0.000,     0.000,   7,   1,1.05480,  -2.4081,   1
  1661,'CASTLEBA    ', 110.0000,1,     0.000,     0.000,   9,   1,1.05000, -12.6630,   1
  1681,'CARRIGAD    ', 110.0000,1,     0.000,     0.000,   3,   1,1.03927,  -4.2917,   1
  1691,'CENTRAL     ', 110.0000,1,     0.000,     0.000,   1,   1,1.05894,  -7.7435,   1
  1701,'CATH_FAL    ', 110.0000,1,     0.000,     0.000,   9,   1,1.02045, -13.1822,   1
  1711,'CROMCAST    ', 110.0000,1,     0.000,     0.000,   1,   1,1.07318,  -6.9948,   1
  1721,'CAHIR       ', 110.0000,1,     0.000,     0.000,   5,   1,1.05073, -10.5108,   1
  1731,'CROMCAST    ', 110.0000,1,     0.000,     0.000,   1,   1,1.07318,  -6.9948,   1
  1741,'CARRICKM    ', 110.0000,1,     0.000,     0.000,   2,   1,1.05906,  -7.6991,   1
  1742,'CARRICKM    ', 220.0000,1,     0.000,     0.000,   2,   1,1.06858,  -5.5041,   1
  1761,'CLIFF       ', 110.0000,1,     0.000,     0.000,   9,   1,1.02047, -13.1825,   1
  1781,'CASTLEFA    ', 110.0000,1,     0.000,     0.000,   7,   1,1.04960,  -1.3274,   5
  1801,'COOKSTOW    ', 110.0000,1,     0.000,     0.000,   1,   1,1.05920,  -7.7744,   2
  1821,'CLOON       ', 110.0000,1,     0.000,     0.000,   9,   1,1.05271,  -9.3629,   1
  1841,'CRANE       ', 110.0000,1,     0.000,     0.000,   6,   1,1.05568,  -8.1986,   1
  1861,'CARICKON    ', 110.0000,1,     0.000,     0.000,   9,   1,1.04598, -10.5565,   1
  1871,'COLLEGE     ', 110.0000,1,     0.000,     0.000,   2,   1,1.05651,  -7.1782,   1
  1881,'CHARLEVI    ', 110.0000,1,     0.000,     0.000,   3,   1,1.02884,  -6.4441,   1
  1901,'CARLOW      ', 110.0000,1,     0.000,     0.000,   6,   1,1.05542,  -9.0502,   1
  1921,'COW CROS    ', 110.0000,1,     0.000,     0.000,   3,   1,1.03696,  -4.1411,   1
  1931,'CUNGHILL    ', 110.0000,1,     0.000,     0.000,   9,   1,1.05000, -11.8155,   4
  1941,'CUSHALIN    ', 110.0000,1,     0.000,     0.000,   8,   1,1.07500,  -4.9883,   1
  1951,'CARROWBE    ', 110.0000,1,     0.000,     0.000,   9,   1,1.03805, -13.5196,   1
  1961,'CASTLEVI    ', 110.0000,1,     0.000,     0.000,   3,   1,1.03397,  -4.6568,   1
  1971,'COOMAGEA    ', 110.0000,1,     0.000,     0.000,   7,   1,1.05000,  -1.8807,   4
  1981,'CORRACLA    ', 110.0000,1,     0.000,     0.000,   9,   1,1.03023, -13.7832,   1
  1991,'CASTLEDO    ', 110.0000,1,     0.000,     0.000,   6,   1,1.05549,  -7.4888,   1
  2001,'CULLENAG    ', 110.0000,1,     0.000,     0.000,   5,   1,1.03888,  -9.1897,   1
  2002,'CULLENAG    ', 220.0000,1,     0.000,     0.000,   5,   1,1.04195,  -6.6349,   1
  2021,'CITY WES    ', 110.0000,1,     0.000,     0.000,   1,   1,1.03778,  -9.9172,   2
  2041,'CORDUFF     ', 110.0000,1,     0.000,     0.000,   2,   1,1.05700,  -7.1010,   1
  2042,'CORDUFF     ', 220.0000,1,     0.000,     0.000,   2,   1,1.07500,  -3.3076,   1
  2052,'CORDUFFB    ', 220.0000,1,     0.000,     0.000,   2,   1,1.07500,  -3.3076,   1
  2081,'DUNKETTL    ', 110.0000,4,     0.000,     0.000,   3,   1,1.00000,   0.0000,   5
  2101,'DUNDALK     ', 110.0000,1,     0.000,     0.000,  10,   1,1.04195, -10.2908,   2
  2121,'DRUMLINE    ', 110.0000,1,     0.000,     0.000,   4,   1,1.04398,  -7.9828,   1
  2131,'DROMADA     ', 110.0000,1,     0.000,     0.000,   3,   1,1.05118,  -2.0540,   1
  2141,'DUNGARVA    ', 110.0000,1,     0.000,     0.000,   5,   1,1.02998,  -8.4074,   1
  2161,'DOON        ', 110.0000,1,     0.000,     0.000,   5,   1,1.04361, -10.9650,   1
  2181,'DRYBRIDG    ', 110.0000,1,     0.000,     0.000,  10,   1,1.03817,  -9.7822,   1
  2202,'DUNSTOWN    ', 220.0000,1,     0.000,     0.000,   2,   1,1.06865,  -4.4524,   1
  2204,'DUNSTOWN    ', 380.0000,1,     0.000,     0.000,   2,   1,1.01271,  -1.0158,   1
  2221,'DUNMANWA    ', 110.0000,1,     0.000,     0.000,   3,   1,1.04043,  -4.9454,   1
  2231,'DERRYBRI    ', 110.0000,1,     0.000,     0.000,   4,   1,1.06574,  -6.6484,   2
  2241,'DALLOW      ', 110.0000,1,     0.000,     0.000,   5,   1,1.06451,  -7.6613,   2
  2251,'DARDISTO    ', 110.0000,1,     0.000,     0.000,   1,   1,1.07359,  -6.9697,   2
  2261,'DERRYIRO    ', 110.0000,1,     0.000,     0.000,   8,   1,1.02929,  -9.3330,   1
  2281,'DALTON      ', 110.0000,1,     0.000,     0.000,   9,   1,1.04368, -11.4854,   1
  2301,'DUNFIRTH    ', 110.0000,1,     0.000,     0.000,   8,   1,1.04021,  -8.5597,   2
  2321,'DRUMKEEN    ', 110.0000,1,     0.000,     0.000,   9,   1,0.98795, -13.8793,   1
  2361,'ENNIS       ', 110.0000,1,     0.000,     0.000,   4,   1,1.04412,  -7.9789,   1
  2481,'FASS EAS    ', 110.0000,1,     0.000,     0.000,   2,   1,1.05481,  -7.9062,   2
  2491,'FASS WES    ', 110.0000,1,     0.000,     0.000,   2,   1,1.05468,  -7.9043,   2
  2521,'FLAGFORD    ', 110.0000,1,     0.000,     0.000,   9,   1,1.04710, -10.4231,   1
  2522,'FLAGFORD    ', 220.0000,1,     0.000,     0.000,   9,   1,1.04775,  -8.5910,   1
  2541,'FRN ST A    ', 110.0000,1,     0.000,     0.000,   1,   1,1.07124,  -7.5895,   2
  2551,'FRN ST B    ', 110.0000,1,     0.000,     0.000,   1,   1,1.06798,  -7.8604,   2
  2561,'FIN_URBA    ', 110.0000,1,     0.000,     0.000,   2,   1,1.06046,  -5.5147,   2
  2562,'FINGLAS     ', 220.0000,1,     0.000,     0.000,   2,   1,1.07500,  -3.4171,   1
  2563,'FINGLAS2    ', 220.0000,1,     0.000,     0.000,   2,   1,1.07500,  -3.4171,   1
  2571,'FIN_RURA    ', 110.0000,1,     0.000,     0.000,   2,   1,1.07391,  -6.8070,   2
  2581,'KILDONAN    ', 110.0000,1,     0.000,     0.000,   2,   1,1.05575,  -7.2601,   2
  2671,'GARVAGH     ', 110.0000,1,     0.000,     0.000,   9,   1,1.05286, -10.5490,   4
  2681,'GILRA       ', 110.0000,1,     0.000,     0.000,   9,   1,1.04900, -10.7114,   2
  2701,'GLASMORE    ', 110.0000,1,     0.000,     0.000,   1,   1,1.05824,  -7.8392,   2
  2721,'GRIFFINR    ', 110.0000,1,     0.000,     0.000,   2,   1,1.05470,  -7.8925,   2
  2731,'GLANLEE     ', 110.0000,1,     0.000,     0.000,   7,   1,1.05011,  -1.8665,   4
  2741,'GREAT IS    ', 110.0000,1,     0.000,     0.000,   6,   1,1.04026,  -9.3481,   1
  2742,'GREAT IS    ', 220.0000,1,     0.000,     0.000,   6,   1,1.04534,  -7.1294,   1
  2761,'GRANGE      ', 110.0000,1,     0.000,     0.000,   1,   1,1.07298,  -7.0155,   2
  2771,'GARROW      ', 110.0000,1,     0.000,     0.000,   7,   1,1.05043,  -2.0679,   7
  2780,'GALWAY      ', 110.0000,1,     0.000,     0.000,   9,   1,1.05056,  -8.3072,   1
  2781,'GALWAY      ', 110.0000,1,     0.000,     0.000,   9,   1,1.05056,  -8.3072,   1
  2801,'GOLAGH      ', 110.0000,1,     0.000,     0.000,   9,   1,1.00146, -13.4314,   4
  2821,'GORTAWEE    ', 110.0000,1,     0.000,     0.000,   9,   1,1.03190, -13.7841,   1
  2841,'GORMAN      ', 110.0000,1,     0.000,     0.000,  10,   1,1.03675,  -9.9816,   1
  2842,'GORMAN      ', 220.0000,1,     0.000,     0.000,  10,   1,1.04778,  -7.5313,   1
  2852,'GLANAGOW    ', 220.0000,1,     0.000,     0.000,   3,   1,1.04055,  -0.3547,   1
  2861,'GRANGE C    ', 110.0000,1,     0.000,     0.000,   1,   1,1.03838,  -9.7321,   2
  2881,'GLENLARA    ', 110.0000,1,     0.000,     0.000,   3,   1,1.02595,  -6.1045,   2
  2941,'HAROLDS     ', 110.0000,1,     0.000,     0.000,   1,   1,1.07138,  -7.6009,   2
  2951,'HEUSTON     ', 110.0000,1,     0.000,     0.000,   1,   1,1.06817,  -7.8462,   2
  2962,'HUNTSTOW    ', 220.0000,1,     0.000,     0.000,   2,   1,1.07511,  -3.3264,   4
  2972,'HUNTSTOW    ', 220.0000,1,     0.000,     0.000,   2,   1,1.07653,  -3.0465,   4
  3061,'INISCARR    ', 110.0000,1,     0.000,     0.000,   3,   1,1.03356,  -4.8843,   1
  3081,'INCH_CIT    ', 110.0000,1,     0.000,     0.000,   2,   1,1.06848,  -7.8093,   2
  3082,'INCHICOR    ', 220.0000,1,     0.000,     0.000,   2,   1,1.07308,  -5.9640,   1
  3091,'INCH_COU    ', 110.0000,1,     0.000,     0.000,   2,   1,1.04298,  -9.5543,   2
  3101,'IKERRIN     ', 110.0000,1,     0.000,     0.000,   5,   1,1.04354, -10.8858,   2
  3122,'IRISHTOW    ', 220.0000,1,     0.000,     0.000,   2,   1,1.07500,  -5.3251,   1
  3200,'KNOCKRAH    ', 110.0000,1,     0.000,     0.000,   3,   1,1.04112,  -1.8420,   1
  3201,'KNOCKRAH    ', 110.0000,1,     0.000,     0.000,   3,   1,1.03764,  -4.5909,   1
  3202,'KNOCKRAH    ', 220.0000,1,     0.000,     0.000,   3,   1,1.04112,  -1.8420,   1
  3203,'KNOCKRAH    ', 220.0000,1,     0.000,     0.000,   3,   1,1.04112,  -1.8420,   1
  3209,'KNOCKRAH    ', 110.0000,1,     0.000,     0.000,   3,   1,1.03764,  -4.5909,   1
  3221,'KILBARRY    ', 110.0000,1,     0.000,     0.000,   3,   1,1.03215,  -5.1640,   1
  3241,'KILTEEL     ', 110.0000,1,     0.000,     0.000,   8,   1,1.05821,  -8.7798,   2
  3261,'KILKENNY    ', 110.0000,1,     0.000,     0.000,   6,   1,1.03470, -11.3610,   1
  3281,'KILLONAN    ', 110.0000,1,     0.000,     0.000,   7,   1,1.04918,  -6.2296,   1
  3282,'KILLONAN    ', 220.0000,1,     0.000,     0.000,   7,   1,1.04437,  -4.2840,   1
  3301,'KNOCKERA    ', 110.0000,1,     0.000,     0.000,   7,   1,1.04255,  -3.1467,   1
  3321,'KNOCKUMB    ', 110.0000,1,     0.000,     0.000,  10,   1,1.02827, -10.5531,   5
  3341,'KELLIS      ', 110.0000,1,     0.000,     0.000,   6,   1,1.05944,  -8.9617,   1
  3342,'KELLIS      ', 220.0000,1,     0.000,     0.000,   6,   1,1.04708,  -6.6660,   1
  3361,'KILTOY      ', 110.0000,1,     0.000,     0.000,   9,   1,0.97991, -14.4120,   5
  3381,'KINNEGAD    ', 110.0000,1,     0.000,     0.000,   8,   1,1.03116,  -9.2613,   1
  3401,'KILLOTER    ', 110.0000,1,     0.000,     0.000,   5,   1,1.03464,  -9.6946,   1
  3421,'KILMORE     ', 110.0000,1,     0.000,     0.000,   1,   1,1.07316,  -6.9944,   2
  3431,'KILMAHUD    ', 110.0000,1,     0.000,     0.000,   1,   1,1.03811,  -9.7496,   1
  3501,'LANESBOR    ', 110.0000,1,     0.000,     0.000,   9,   1,1.05000,  -8.9265,   1
  3521,'LOUTHA      ', 110.0000,1,     0.000,     0.000,  10,   1,1.05792,  -9.5603,   1
  3522,'LOUTH       ', 220.0000,1,     0.000,     0.000,  10,   1,1.04112,  -7.7695,   1
  3541,'LIMERICK    ', 110.0000,1,     0.000,     0.000,   7,   1,1.04318,  -6.2124,   1
  3561,'LISDRUM     ', 110.0000,1,     0.000,     0.000,  10,   1,1.05759, -12.1103,   1
  3581,'LETTERKE    ', 110.0000,1,     0.000,     0.000,   9,   1,0.97990, -14.4117,   1
  3601,'LIBERTY     ', 110.0000,1,     0.000,     0.000,   3,   1,1.03271,  -5.1337,   2
  3611,'LIBERTY     ', 110.0000,1,     0.000,     0.000,   3,   1,1.03288,  -5.1229,   2
  3621,'LISHEEN     ', 110.0000,1,     0.000,     0.000,   5,   1,1.04665, -11.7836,   5
  3641,'LODGEWOO    ', 110.0000,1,     0.000,     0.000,   6,   1,1.05589,  -7.5617,   1
  3642,'LODGEWOO    ', 220.0000,1,     0.000,     0.000,   6,   1,1.05415,  -7.0364,   1
  3651,'CRORY       ', 110.0000,1,     0.000,     0.000,   5,   1,1.05589,  -7.5617,   1
  3751,'MISERY H    ', 110.0000,1,     0.000,     0.000,   1,   1,1.07178,  -7.5801,   2
  3761,'MACETOWN    ', 110.0000,1,     0.000,     0.000,   1,   1,1.05497,  -7.2993,   1
  3781,'MCDERMOT    ', 110.0000,1,     0.000,     0.000,   1,   1,1.05830,  -5.6562,   2
  3801,'MIDLETON    ', 110.0000,1,     0.000,     0.000,   3,   1,1.03545,  -4.4673,   1
  3821,'MEATH HI    ', 110.0000,1,     0.000,     0.000,  10,   1,1.03964,  -9.8986,   2
  3841,'MAYNOOTH    ', 110.0000,1,     0.000,     0.000,   2,   1,1.05612,  -7.8018,   1
  3842,'MAYNOOTH    ', 220.0000,1,     0.000,     0.000,   2,   1,1.06487,  -5.8910,   1
  3851,'MAYNOOTH    ', 110.0000,1,     0.000,     0.000,   2,   1,1.05498,  -7.2743,   1
  3852,'MAYNOOTH    ', 220.0000,1,     0.000,     0.000,   2,   1,1.06948,  -4.9568,   1
  3861,'MILLTOWN    ', 110.0000,1,     0.000,     0.000,   1,   1,1.07247,  -7.5530,   2
  3871,'MILLTOWN    ', 110.0000,1,     0.000,     0.000,   1,   1,1.06606,  -7.9285,   2
  3881,'MACROOM     ', 110.0000,1,     0.000,     0.000,   3,   1,1.04015,  -4.2262,   1
  3901,'MONETEEN    ', 110.0000,1,     0.000,     0.000,   7,   1,1.04203,  -5.3716,   1
  3934,'MNYPG1      ', 380.0000,1,     0.000,     6.000,   4,   1,1.05000,   4.4029,   1
  3941,'MONEYPOI    ', 110.0000,1,     0.000,     0.000,   4,   1,1.04979,  -7.6677,   1
  3942,'MONEYPOI    ', 220.0000,1,     0.000,     0.000,   4,   1,1.06648,   0.1856,   1
  3944,'MNYPG3      ', 380.0000,1,     0.000,     6.000,   4,   1,1.05000,   4.4029,   1
  3954,'MNYPG2      ', 380.0000,1,     0.000,     6.000,   4,   1,1.05000,   4.4029,   1
  3961,'MARINA      ', 110.0000,1,     0.000,     0.000,   3,   1,1.03305,  -5.1120,   1
  3981,'MUNGRET     ', 110.0000,1,     0.000,     0.000,   7,   1,1.04181,  -5.3847,   5
  3991,'MUNGRET     ', 110.0000,1,     0.000,     0.000,   7,   1,1.04181,  -5.3841,   5
  4001,'MULLINGA    ', 110.0000,1,     0.000,     0.000,   9,   1,1.02864,  -9.8064,   1
  4021,'MALLOW      ', 110.0000,1,     0.000,     0.000,   3,   1,1.02562,  -6.2271,   1
  4041,'MOY         ', 110.0000,1,     0.000,     0.000,   9,   1,1.04432, -12.7093,   1
  4061,'MULLAGHA    ', 110.0000,1,     0.000,     0.000,  10,   1,1.04690, -10.0777,   2
  4071,'MEENTYCA    ', 110.0000,1,     0.000,     0.000,   9,   1,0.98963, -13.6145,   4
  4081,'MONREAD     ', 110.0000,1,     0.000,     0.000,   8,   1,1.05558,  -8.6519,   1
  4101,'NEWBURY     ', 110.0000,1,     0.000,     0.000,   1,   1,1.07304,  -7.0072,   2
...
0 / END OF BUS DATA, BEGIN LOAD DATA
    10,'LD',1,   2,   1,    42.900,    29.490,     0.000,     0.000,     0.000,     0.000,   2
    11,'LD',1,   2,   1,    28.750,    20.420,     0.000,     0.000,     0.000,     0.000,   2
    12,'LD',1,   1,   1,     4.870,     1.600,     0.000,     0.000,     0.000,     0.000,   2
    13,'LD',1,   1,   1,    26.220,     8.590,     0.000,     0.000,     0.000,     0.000,   2
    14,'LD',1,   2,   1,    40.500,    13.320,     0.000,     0.000,     0.000,     0.000,   2
    15,'LD',1,   2,   1,    42.520,    14.000,     0.000,     0.000,     0.000,     0.000,   2
  1041,'LD',1,   3,   1,     1.280,     0.060,     0.000,     0.000,     0.000,     0.000,   2
  1101,'I ',1,   5,   2,    11.000,     6.000,     0.000,     0.000,     0.000,     0.000,   5
  1101,'MI',1,   5,   2,     5.620,    -1.020,     0.000,     0.000,     0.000,     0.000,   5
  4341,'I ',1,   3,   2,     1.300,     0.390,     0.000,     0.000,     0.000,     0.000,   5
 10204,'LD',1,   4,   1,    12.480,     6.980,     0.000,     0.000,     0.000,     0.000,   2
 10205,'LD',1,   4,   1,    12.480,     6.980,     0.000,     0.000,     0.000,     0.000,   2
 10470,'HL',1,   3,   1,     7.500,     2.700,     0.000,     0.000,     0.000,     0.000,   1
 10471,'HL',0,   3,   1,    11.990,     4.310,     0.000,     0.000,     0.000,     0.000,   3
 10602,'LD',1,   9,   1,     5.030,     1.230,     0.000,     0.000,     0.000,     0.000,   2
 10801,'LD',1,   7,   1,     4.640,     1.030,     0.000,     0.000,     0.000,     0.000,   2
 11201,'LD',1,   6,   1,     5.890,     1.930,     0.000,     0.000,     0.000,     0.000,   2
 11204,'LD',1,   6,   1,     9.570,     3.150,     0.000,     0.000,     0.000,     0.000,   2
 11404,'LD',1,   9,   1,    53.670,    12.050,     0.000,     0.000,     0.000,     0.000,   2
 12001,'LD',1,   1,   1,    11.330,     1.750,     0.000,     0.000,     0.000,     0.000,   2
 12201,'LD',1,   8,   1,    12.640,     3.350,     0.000,     0.000,     0.000,     0.000,   2
 12702,'LD',1,  10,   1,    11.140,     1.500,     0.000,     0.000,     0.000,     0.000,   2
 12804,'LD',1,   3,   1,     3.750,     1.210,     0.000,     0.000,     0.000,     0.000,   2
 13001,'LD',1,   6,   1,     9.890,     3.230,     0.000,     0.000,     0.000,     0.000,   2
 13204,'LD',1,   8,   1,    17.990,     4.940,     0.000,     0.000,     0.000,     0.000,   2
 13404,'LD',1,   9,   1,    22.560,     7.420,     0.000,     0.000,     0.000,     0.000,   2
 13501,'I ',1,   8,   2,     9.500,     2.850,     0.000,     0.000,     0.000,     0.000,   5
 13601,'I ',1,   5,   2,     5.290,     1.460,     0.000,     0.000,     0.000,     0.000,   5
 13601,'MI',1,   5,   2,     3.920,     1.300,     0.000,     0.000,     0.000,     0.000,   5
 13604,'LD',1,   5,   1,    10.830,     4.020,     0.000,     0.000,     0.000,     0.000,   2
 13802,'LD',1,   3,   1,    18.790,     5.270,     0.000,     0.000,     0.000,     0.000,   2
 13804,'LD',1,   3,   1,    16.020,     4.530,     0.000,     0.000,     0.000,     0.000,   2
 14004,'LD',1,   9,   1,     9.010,     3.660,     0.000,     0.000,     0.000,     0.000,   2
 14204,'LD',1,   1,   1,    49.920,     7.500,     0.000,     0.000,     0.000,     0.000,   2
 14401,'LD',1,   3,   1,     4.900,     1.850,     0.000,     0.000,     0.000,     0.000,   2
 14404,'LD',1,   3,   1,    24.520,     8.820,     0.000,     0.000,     0.000,     0.000,   2
 14502,'I ',1,   1,   2,    23.750,     7.800,     0.000,     0.000,     0.000,     0.000,   5
 14604,'LD',1,   5,   1,    20.660,     4.290,     0.000,     0.000,     0.000,     0.000,   2
 14804,'LD',1,   5,   1,    29.490,     6.380,     0.000,     0.000,     0.000,     0.000,   2
 15001,'I ',1,   3,   2,     4.590,     1.700,     0.000,     0.000,     0.000,     0.000,   5
 15001,'MI',1,   3,   2,     1.580,     0.150,     0.000,     0.000,     0.000,     0.000,   5
 15402,'LD',1,   6,   1,    13.560,     4.460,     0.000,     0.000,     0.000,     0.000,   2
 15801,'LD',1,   1,   1,     6.820,     2.250,     0.000,     0.000,     0.000,     0.000,   2
 16202,'LD',1,   3,   1,    12.930,     1.370,     0.000,     0.000,     0.000,     0.000,   2
 16604,'LD',1,   9,   1,    27.900,     7.440,     0.000,     0.000,     0.000,     0.000,   2
 16901,'LD',1,   1,   1,     7.720,     1.210,     0.000,     0.000,     0.000,     0.000,   2
 17004,'LD',1,   9,   1,     4.130,     1.360,     0.000,     0.000,     0.000,     0.000,   2
 17204,'LD',1,   5,   1,    29.650,     8.440,     0.000,     0.000,     0.000,     0.000,   2
 17404,'LD',1,   2,   1,    51.090,    26.620,     0.000,     0.000,     0.000,     0.000,   2
 17802,'I ',1,   7,   2,    49.000,    14.700,     0.000,     0.000,     0.000,     0.000,   5
 18001,'LD',1,   1,   1,     3.450,     1.120,     0.000,     0.000,     0.000,     0.000,   2
 18004,'LD',1,   1,   1,    47.190,     8.340,     0.000,     0.000,     0.000,     0.000,   2
 18204,'LD',1,   9,   1,    18.420,     7.840,     0.000,     0.000,     0.000,     0.000,   2
 18402,'LD',1,   6,   1,     7.150,     2.290,     0.000,     0.000,     0.000,     0.000,   2
 18404,'LD',1,   6,   1,    17.180,     4.590,     0.000,     0.000,     0.000,     0.000,   2
 18604,'LD',1,   9,   1,    24.600,     5.540,     0.000,     0.000,     0.000,     0.000,   2
 18701,'LD',1,   2,   1,    22.660,     4.170,     0.000,     0.000,     0.000,     0.000,   2
 18804,'LD',1,   3,   1,    14.450,     5.050,     0.000,     0.000,     0.000,     0.000,   2
 19004,'LD',1,   6,   1,    26.230,     8.620,     0.000,     0.000,     0.000,     0.000,   2
 19204,'LD',1,   3,   1,    13.950,     2.600,     0.000,     0.000,     0.000,     0.000,   2
 19471,'HL',1,   8,   1,    11.700,     4.210,     0.000,     0.000,     0.000,     0.000,   4
 19504,'LD',1,   9,   1,    21.910,     5.840,     0.000,     0.000,     0.000,     0.000,   2
 19601,'LD',1,   3,   1,    26.890,     7.200,     0.000,     0.000,     0.000,     0.000,   2
 20201,'LD',1,   1,   1,    27.740,    10.460,     0.000,     0.000,     0.000,     0.000,   2
 21004,'LD',1,  10,   1,    48.510,    11.720,     0.000,     0.000,     0.000,     0.000,   2
 21204,'LD',1,   4,   1,    28.760,     9.870,     0.000,     0.000,     0.000,     0.000,   2
 21404,'LD',1,   5,   1,    32.380,     6.380,     0.000,     0.000,     0.000,     0.000,   2
 21604,'LD',1,   5,   1,    12.350,     4.060,     0.000,     0.000,     0.000,     0.000,   2
 21804,'LD',1,  10,   1,    63.640,    17.060,     0.000,     0.000,     0.000,     0.000,   2
 22204,'LD',1,   3,   1,    22.630,    10.370,     0.000,     0.000,     0.000,     0.000,   2
 22404,'LD',1,   5,   1,    14.660,     4.490,     0.000,     0.000,     0.000,     0.000,   2
 22501,'I ',1,   1,   2,    10.450,     3.434,     0.000,     0.000,     0.000,     0.000,   5
 22671,'HL',0,   8,   1,     0.300,     0.100,     0.000,     0.000,     0.000,     0.000,   1
 22672,'HL',0,   8,   1,     0.300,     0.100,     0.000,     0.000,     0.000,     0.000,   1
 22804,'LD',1,   9,   1,    20.180,     5.620,     0.000,     0.000,     0.000,     0.000,   2
 23001,'LD',1,   8,   1,     6.030,     0.570,     0.000,     0.000,     0.000,     0.000,   2
 23604,'LD',1,   4,   1,    48.520,    13.480,     0.000,     0.000,     0.000,     0.000,   2
 24804,'LD',1,   2,   1,    39.130,    15.390,     0.000,     0.000,     0.000,     0.000,   2
 25604,'LD',1,   2,   1,    49.800,    10.310,     0.000,     0.000,     0.000,     0.000,   2
 26802,'I ',1,   9,   2,    10.440,     3.130,     0.000,     0.000,     0.000,     0.000,   5
 26802,'MI',1,   9,   2,     0.060,     0.020,     0.000,     0.000,     0.000,     0.000,   5
 27004,'LD',1,   1,   1,    55.460,    16.400,     0.000,     0.000,     0.000,     0.000,   2
 27204,'LD',1,   2,   1,    39.400,    11.700,     0.000,     0.000,     0.000,     0.000,   2
 27404,'LD',1,   6,   1,    15.630,     5.140,     0.000,     0.000,     0.000,     0.000,   2
 27471,'HL',0,   6,   1,     2.990,     1.070,     0.000,     0.000,     0.000,     0.000,   3
 27472,'HL',0,   6,   1,     2.720,     0.980,     0.000,     0.000,     0.000,     0.000,   3
 27473,'HL',0,   6,   1,     7.980,     2.870,     0.000,     0.000,     0.000,     0.000,   3
 27604,'LD',1,   1,   1,    37.250,    10.140,     0.000,     0.000,     0.000,     0.000,   2
 27801,'LD',1,   9,   1,    20.920,     5.830,     0.000,     0.000,     0.000,     0.000,   2
 27804,'LD',1,   9,   1,    44.860,     5.310,     0.000,     0.000,     0.000,     0.000,   2
 28201,'I ',1,   9,   2,    20.900,     6.270,     0.000,     0.000,     0.000,     0.000,   5
 28204,'LD',1,   9,   1,    12.290,     3.860,     0.000,     0.000,     0.000,     0.000,   2
 28571,'HL',1,   3,   1,     3.600,     1.290,     0.000,     0.000,     0.000,     0.000,   1
 28601,'I ',1,   1,   2,     9.000,     2.700,     0.000,     0.000,     0.000,     0.000,   5
 28601,'LD',1,   1,   1,    10.170,     1.300,     0.000,     0.000,     0.000,     0.000,   2
 28604,'LD',1,   1,   1,    47.790,    12.630,     0.000,     0.000,     0.000,     0.000,   2
 28611,'I ',1,   1,   2,     9.000,     2.700,     0.000,     0.000,     0.000,     0.000,   5
 28804,'LD',1,   3,   1,    11.880,     3.380,     0.000,     0.000,     0.000,     0.000,   2
 29401,'LD',1,   1,   1,    21.030,     5.830,     0.000,     0.000,     0.000,     0.000,   2
 29501,'LD',1,   1,   1,     4.920,     1.550,     0.000,     0.000,     0.000,     0.000,   2
 29672,'HL',0,   2,   1,     7.180,     2.580,     0.000,     0.000,     0.000,     0.000,   4
 30804,'LD',1,   2,   1,    32.320,    10.700,     0.000,     0.000,     0.000,     0.000,   2
 31004,'LD',1,   5,   1,    32.370,    11.540,     0.000,     0.000,     0.000,     0.000,   2
 31271,'HL',1,   2,   1,     5.040,     1.810,     0.000,     0.000,     0.000,     0.000,   4
 32201,'LD',1,   3,   1,    10.660,     2.490,     0.000,     0.000,     0.000,     0.000,   2
 32204,'LD',1,   3,   1,    63.930,    11.370,     0.000,     0.000,     0.000,     0.000,   2
 32404,'LD',1,   8,   1,    28.290,    11.150,     0.000,     0.000,     0.000,     0.000,   2
 32604,'LD',1,   6,   1,    59.800,    24.290,     0.000,     0.000,     0.000,     0.000,   2
 33004,'LD',1,   7,   1,    34.970,    10.280,     0.000,     0.000,     0.000,     0.000,   2
 33201,'I ',1,  10,   2,    23.000,     6.900,     0.000,     0.000,     0.000,     0.000,   5
 33201,'MI',1,  10,   2,     6.440,     1.930,     0.000,     0.000,     0.000,     0.000,   5
 33801,'I ',1,   8,   2,    10.220,     3.060,     0.000,     0.000,     0.000,     0.000,   5
 33801,'MI',1,   8,   2,     1.500,     0.450,     0.000,     0.000,     0.000,     0.000,   5
 34001,'LD',1,   5,   1,     9.830,     2.740,     0.000,     0.000,     0.000,     0.000,   2
 34201,'LD',1,   1,   1,    13.990,     4.360,     0.000,     0.000,     0.000,     0.000,   2
 34301,'I ',1,   1,   2,    23.750,     7.120,     0.000,     0.000,     0.000,     0.000,   5
 35004,'LD',1,   9,   1,    11.430,     3.560,     0.000,     0.000,     0.000,     0.000,   2
 35074,'HL',1,   9,   1,     9.000,     3.240,     0.000,     0.000,     0.000,     0.000,   3
 35404,'LD',1,   7,   1,    70.360,    13.890,     0.000,     0.000,     0.000,     0.000,   2
 35604,'LD',1,  10,   1,    24.330,     7.230,     0.000,     0.000,     0.000,     0.000,   2
 35804,'LD',1,   9,   1,    41.490,    10.580,     0.000,     0.000,     0.000,     0.000,   2
 36001,'LD',1,   3,   1,    22.480,     6.340,     0.000,     0.000,     0.000,     0.000,   2
 36201,'I ',1,   5,   2,    16.600,     3.600,     0.000,     0.000,     0.000,     0.000,   5
 36201,'MI',1,   5,   2,     2.390,     2.100,     0.000,     0.000,     0.000,     0.000,   5
 37501,'LD',1,   1,   1,    21.080,     3.820,     0.000,     0.000,     0.000,     0.000,   2
 37601,'LD',1,   1,   1,    20.820,     3.890,     0.000,     0.000,     0.000,     0.000,   2
 37602,'I ',1,   1,   2,     5.000,     1.500,     0.000,     0.000,     0.000,     0.000,   5
 37602,'MI',1,   1,   2,     5.440,     1.630,     0.000,     0.000,     0.000,     0.000,   5
 38001,'LD',1,   3,   1,    11.020,     2.470,     0.000,     0.000,     0.000,     0.000,   2
 38004,'LD',1,   3,   1,     6.170,     1.670,     0.000,     0.000,     0.000,     0.000,   2
 38204,'LD',1,  10,   1,    25.030,    11.660,     0.000,     0.000,     0.000,     0.000,   2
 38601,'LD',1,   1,   1,     5.450,     0.910,     0.000,     0.000,     0.000,     0.000,   2
 38701,'LD',1,   1,   1,     7.530,     1.110,     0.000,     0.000,     0.000,     0.000,   2
 38804,'LD',1,   3,   1,    16.400,     3.950,     0.000,     0.000,     0.000,     0.000,   2
 39471,'HL',1,   4,   1,    17.240,     6.200,     0.000,     0.000,     0.000,     0.000,   3
 39472,'HL',1,   4,   1,    17.240,     6.200,     0.000,     0.000,     0.000,     0.000,   3
 39473,'HL',1,   4,   1,    17.240,     6.200,     0.000,     0.000,     0.000,     0.000,   3
 39601,'LD',1,   3,   1,    16.060,     3.370,     0.000,     0.000,     0.000,     0.000,   2
 39675,'HL',0,   3,   1,     5.000,     1.800,     0.000,     0.000,     0.000,     0.000,   3
 39801,'I ',1,   7,   2,    22.000,     6.600,     0.000,     0.000,     0.000,     0.000,   5
 39801,'MI',1,   7,   2,     1.500,     0.450,     0.000,     0.000,     0.000,     0.000,   5
 40001,'LD',1,   9,   1,    12.300,     3.890,     0.000,     0.000,     0.000,     0.000,   2
 40004,'LD',1,   9,   1,    24.330,     7.790,     0.000,     0.000,     0.000,     0.000,   2
 40204,'LD',1,   3,   1,    17.590,     6.120,     0.000,     0.000,     0.000,     0.000,   2
 40404,'LD',1,   9,   1,    17.570,     3.930,     0.000,     0.000,     0.000,     0.000,   2
 40602,'I ',1,  10,   2,     5.180,     1.550,     0.000,     0.000,     0.000,     0.000,   5
 40602,'MI',1,  10,   2,     2.420,     0.730,     0.000,     0.000,     0.000,     0.000,   5
 40801,'LD',1,   8,   1,     8.010,     1.680,     0.000,     0.000,     0.000,     0.000,   2
 41002,'I ',1,   1,   2,    18.000,     5.900,     0.000,     0.000,     0.000,     0.000,   5
 41102,'I ',1,   1,   2,    24.000,    11.630,     0.000,     0.000,     0.000,     0.000,   5
 42004,'LD',1,   8,   1,    29.840,     9.080,     0.000,     0.000,     0.000,     0.000,   2
 42102,'LD',1,   1,   1,    13.250,     2.130,     0.000,     0.000,     0.000,     0.000,   2
 42204,'LD',1,  10,   1,    41.990,    11.390,     0.000,     0.000,     0.000,     0.000,   2
 42604,'LD',1,   7,   1,    24.610,     8.120,     0.000,     0.000,     0.000,     0.000,   2
 42802,'I ',1,   1,   2,    26.000,     7.800,     0.000,     0.000,     0.000,     0.000,   5
 43604,'LD',1,   7,   1,    20.440,     4.630,     0.000,     0.000,     0.000,     0.000,   2
 44001,'LD',1,   1,   1,    14.920,     2.180,     0.000,     0.000,     0.000,     0.000,   2
 44804,'LD',1,   8,   1,    50.200,    16.160,     0.000,     0.000,     0.000,     0.000,   2
 44901,'LD',1,   1,   1,    10.550,     1.070,     0.000,     0.000,     0.000,     0.000,   2
 45001,'I ',1,  10,   2,    29.000,     9.100,     0.000,     0.000,     0.000,     0.000,   5
 45001,'MI',1,  10,   2,     3.290,     0.580,     0.000,     0.000,     0.000,     0.000,   5
 45101,'LD',1,   1,   1,    11.750,     2.130,     0.000,     0.000,     0.000,     0.000,   2
 46210,'I ',1,   2,   2,    34.840,    10.450,     0.000,     0.000,     0.000,     0.000,   5
 46214,'I ',1,   2,   2,    34.840,    10.450,     0.000,     0.000,     0.000,     0.000,   5
 46224,'I ',1,   2,   2,    34.840,    10.450,     0.000,     0.000,     0.000,     0.000,   5
 46501,'LD',1,   1,   1,     4.660,     2.950,     0.000,     0.000,     0.000,     0.000,   2
 46804,'LD',1,   7,   1,    17.860,     6.740,     0.000,     0.000,     0.000,     0.000,   2
 47004,'LD',1,   9,   1,    24.390,     9.260,     0.000,     0.000,     0.000,     0.000,   2
 47402,'I ',1,   2,   2,    15.200,     4.560,     0.000,     0.000,     0.000,     0.000,   5
 47601,'LD',1,   3,   1,     2.050,     0.230,     0.000,     0.000,     0.000,     0.000,   2
 49001,'I ',1,   6,   2,     2.290,     0.680,     0.000,     0.000,     0.000,     0.000,   5
 49474,'HL',1,   5,   1,    12.890,     4.640,     0.000,     0.000,     0.000,     0.000,   3
 49501,'LD',1,   9,   1,    14.520,     1.990,     0.000,     0.000,     0.000,     0.000,   2
 49504,'LD',1,   9,   1,    34.540,    10.360,     0.000,     0.000,     0.000,     0.000,   2
 49604,'LD',1,  10,   1,    48.170,    17.790,     0.000,     0.000,     0.000,     0.000,   2
 49804,'LD',1,   9,   1,    45.370,    10.910,     0.000,     0.000,     0.000,     0.000,   2
 50004,'LD',1,   9,   1,    17.740,     5.590,     0.000,     0.000,     0.000,     0.000,   2
 50276,'HL',1,   2,   1,     5.880,     2.110,     0.000,     0.000,     0.000,     0.000,   3
 50301,'LD',1,   1,   1,    11.230,     3.690,     0.000,     0.000,     0.000,     0.000,   2
 50573,'HL',1,   7,   1,     0.980,     0.350,     0.000,     0.000,     0.000,     0.000,   4
 50574,'HL',1,   7,   1,     0.980,     0.350,     0.000,     0.000,     0.000,     0.000,   4
 50604,'LD',1,   6,   1,    15.420,     5.870,     0.000,     0.000,     0.000,     0.000,   2
 50901,'LD',1,   7,   1,     9.410,     1.900,     0.000,     0.000,     0.000,     0.000,   2
 51301,'LD',1,   1,   1,    10.550,     1.720,     0.000,     0.000,     0.000,     0.000,   2
 51471,'HL',0,   7,   1,     3.000,     1.080,     0.000,     0.000,     0.000,     0.000,   3
 51472,'HL',0,   7,   1,     3.000,     1.080,     0.000,     0.000,     0.000,     0.000,   3
 51473,'HL',0,   7,   1,    15.300,     5.500,     0.000,     0.000,     0.000,     0.000,   3
 51474,'HL',0,   7,   1,    15.300,     5.500,     0.000,     0.000,     0.000,     0.000,   3
 51771,'HL',1,   4,   1,     5.610,     2.020,     0.000,     0.000,     0.000,     0.000,   4
 51801,'LD',1,   3,   1,    16.350,     2.990,     0.000,     0.000,     0.000,     0.000,   2
 51804,'LD',1,   3,   1,    48.830,    11.610,     0.000,     0.000,     0.000,     0.000,   2
 52204,'LD',1,   4,   1,     4.170,     1.450,     0.000,     0.000,     0.000,     0.000,   2
 52476,'HL',0,   9,   1,     0.300,     0.100,     0.000,     0.000,     0.000,     0.000,   3
 52477,'HL',0,   9,   1,     0.300,     0.100,     0.000,     0.000,     0.000,     0.000,   3
 52604,'LD',1,   7,   1,    25.170,     8.610,     0.000,     0.000,     0.000,     0.000,   2
 52804,'LD',1,   7,   1,    31.700,     3.260,     0.000,     0.000,     0.000,     0.000,   2
 53004,'LD',1,   5,   1,    23.090,     6.370,     0.000,     0.000,     0.000,     0.000,   2
 53204,'LD',1,   8,   1,    26.600,     8.380,     0.000,     0.000,     0.000,     0.000,   2
 53404,'LD',1,   9,   1,    11.500,     4.360,     0.000,     0.000,     0.000,     0.000,   2
 53604,'LD',1,   9,   1,    22.440,     5.020,     0.000,     0.000,     0.000,     0.000,   2
...
0 / END OF LOAD DATA, BEGIN GENERATOR DATA
 10271,'1 ',    21.000,     0.000,    15.000,    -7.000,1.05000,  1021,    34.000,   0.00000,   0.22000,   0.00000,   0.00000,1.00000,0,   15.0,    21.000,     5.000,   3,1.0000
 10272,'2 ',    22.000,     0.000,    15.000,    -7.000,1.05000,  1021,    34.000,   0.00000,   0.22000,   0.00000,   0.00000,1.00000,0,   15.0,    22.000,     5.000,   3,1.0000
 10273,'3 ',    19.000,     0.000,    15.000,    -7.000,1.05000,  1021,    34.000,   0.00000,   0.22000,   0.00000,   0.00000,1.00000,0,   15.0,    19.000,     5.000,   3,1.0000
 10274,'4 ',    24.000,     0.000,    15.000,    -7.000,1.05000,  1021,    34.000,   0.00000,   0.22000,   0.00000,   0.00000,1.00000,0,   15.0,    24.000,     5.000,   3,1.0000
 10275,'3 ',     2.250,     0.000,     0.000,     0.000,1.05000,     0,     8.350,   0.00920,   0.16210,   0.00000,   0.00000,1.00000,1,    2.3,     7.500,     0.000,   7,1.0000
 10276,'2 ',     0.198,     0.000,     0.000,     0.000,1.05000,     0,     0.850,   0.00730,   0.13500,   0.00000,   0.00000,1.00000,1,    0.2,     0.660,     0.000,   7,1.0000
 10470,'1 ',   300.000,   -41.968,   270.000,  -170.000,1.04000,  1062,   500.000,   0.00270,   0.18000,   0.00000,   0.00000,1.00000,1,  250.0,   443.000,   222.000,   1,1.0000
 10471,'1 ',   270.000,     0.000,   159.000,   -75.000,1.07500,  1062,   318.800,   0.00000,   0.22500,   0.00000,   0.00000,1.00000,0,  153.0,   270.000,    40.000,   3,1.0000
 10472,'11',    90.000,     0.000,    60.000,   -30.000,1.07500,  1062,   100.900,   0.00000,   0.12500,   0.00000,   0.00000,1.00000,0,   60.0,    90.000,    13.000,   3,1.0000
 10473,'12',    90.000,     0.000,    60.000,   -30.000,1.07500,  1062,   100.900,   0.00000,   0.12500,   0.00000,   0.00000,1.00000,0,   60.0,    90.000,    13.000,   3,1.0000
 10474,'14',    90.000,     0.000,    60.000,   -30.000,1.07500,  1062,   100.900,   0.00000,   0.12500,   0.00000,   0.00000,1.00000,0,   60.0,    90.000,    13.000,   3,1.0000
 10671,'2 ',     1.440,    -1.940,    -1.940,    -1.940,1.04000,     0,     4.800,   0.02040,   0.33060,   0.00000,   0.00000,1.00000,1,    1.5,     4.800,     0.000,   7,1.0000
 10672,'3 ',     1.500,    -2.000,    -2.000,    -2.000,1.04000,     0,     6.000,   0.02040,   0.33060,   0.00000,   0.00000,1.00000,1,    1.6,     5.000,     0.000,   7,1.0000
 10673,'1 ',     0.360,    -0.480,    -0.480,    -0.480,1.05000,     0,     1.200,   0.02040,   0.33060,   0.00000,   0.00000,1.00000,1,    0.4,     1.200,     0.000,   7,1.0000
 10674,'5 ',     1.380,    -1.770,    -1.770,    -2.300,1.04000,     0,     4.600,   0.02570,   0.73700,   0.00000,   0.00000,1.00000,1,    1.7,     4.600,     0.000,   7,1.0000
 11204,'1 ',     1.000,     0.000,     0.000,     0.000,1.00000,     0,     1.600,   0.00000,   0.20000,   0.01000,   0.06000,1.00000,0,  100.0,     1.000,     0.000,   2,1.0000
 11271,'1 ',     7.560,     0.000,     0.000,     0.000,1.04000,     0,    28.000,   0.00320,   0.12400,   0.00000,   0.00000,1.00000,1,    7.9,    25.200,     0.000,   7,1.0000
 12371,'1 ',     9.450,    -7.000,     7.000,    -7.000,1.05000,  1231,    32.000,   0.02570,   0.73700,   0.00000,   0.00000,1.00000,1,    7.0,    31.500,     0.000,   7,1.0000
 12372,'2 ',     3.150,     0.000,     0.000,     0.000,1.05000,  1231,    10.000,   0.02570,   0.73700,   0.00000,   0.00000,1.00000,1,    3.5,    10.500,     0.000,   7,1.0000
 12571,'1 ',     5.835,     0.000,     0.000,     0.000,1.05000,  1251,    25.050,   0.00920,   0.16210,   0.00000,   0.00000,1.00000,1,    6.4,    19.450,     0.000,   7,1.0000
 12572,'TW',     0.900,     0.818,     0.990,    -0.990,1.05000,  1251,     3.340,   0.00920,   0.16210,   0.00000,   0.00000,1.00000,1,    1.0,     3.000,     0.000,   7,1.0000
 12573,'TW',     2.700,     2.454,     2.960,    -2.960,1.05000,  1251,    10.020,   0.00920,   0.16210,   0.00000,   0.00000,1.00000,1,    3.0,     9.000,     0.000,   7,1.0000
 12872,'DW',     2.520,     0.000,     0.000,    -2.760,1.05000,  1281,     9.200,   0.02570,   0.73700,   0.00000,   0.00000,1.00000,1,    2.6,     8.400,     0.000,   7,1.0000
 12873,'1 ',     5.865,     0.000,     0.000,     0.000,1.05000,  1281,    20.700,   0.02570,   0.73700,   0.00000,   0.00000,1.00000,1,    6.1,    19.550,     0.000,   7,1.0000
 12874,'1 ',     2.550,     0.000,     0.000,     0.000,1.05000,  1281,     8.500,   0.00210,   0.08600,   0.00000,   0.00000,1.00000,1,    2.7,     8.500,     0.000,   7,1.0000
 13434,'10',     4.300,     0.000,     0.000,     0.000,1.00000,     0,     4.500,   0.00000,   0.20000,   0.00000,   0.10000,1.00000,0,    1.0,     4.300,     0.000,   1,1.0000
 13471,'1 ',     0.198,     0.000,     0.000,     0.000,1.05000,  1341,     0.660,   0.02040,   0.33060,   0.00000,   0.00000,1.00000,1,    0.2,     0.660,     0.000,   7,1.0000
 13472,'DW',     0.765,     0.000,     0.000,    -0.840,1.05000,  1341,     2.700,   0.03020,   0.86600,   0.00000,   0.00000,1.00000,1,    0.8,     2.550,     0.000,   7,1.0000
 13473,'4 ',     3.000,     0.000,     0.000,     0.000,1.05000,  1341,    10.000,   0.00320,   0.12400,   0.00000,   0.00000,1.00000,1,    4.7,    10.000,     0.000,   7,1.0000
 13475,'6 ',     2.295,     0.000,     0.000,     0.000,1.05000,  1341,     7.650,   0.00730,   0.13500,   0.00000,   0.00000,1.00000,1,    2.4,     7.650,     0.000,   7,1.0000
 13476,'3 ',     3.570,     0.000,     0.000,     0.000,1.05000,  1341,    11.500,   0.02570,   0.73700,   0.00000,   0.00000,1.00000,1,    3.7,    11.900,     0.000,   7,1.0000
 13477,'2 ',     0.765,     0.000,     0.000,     0.000,1.05000,  1341,     2.700,   0.03020,   0.86600,   0.00000,   0.00000,1.00000,1,    0.8,     2.550,     0.000,   7,1.0000
 13479,'9 ',     1.020,     0.000,     0.000,     0.000,1.00000,     0,     3.400,   0.00730,   0.13500,   0.00000,   0.00000,1.00000,1,    1.1,     3.400,     0.000,   7,1.0000
 14073,'3 ',     1.935,    -2.400,    -2.400,    -2.400,1.04000,     0,     7.611,   0.02040,   0.33060,   0.00000,   0.00000,1.00000,1,    2.0,     6.450,     0.000,   7,1.0000
 14471,'1 ',     1.200,     0.000,     0.000,     0.000,1.04000,     0,     4.000,   0.00320,   0.12400,   0.00000,   0.00000,1.00000,1,    1.4,     4.000,     0.000,   7,1.0000
 14472,'1 ',     0.085,     0.000,     0.000,     0.000,1.00000,     0,     0.850,   0.00210,   0.08600,   0.00000,   0.00000,1.00000,1,    0.1,     0.850,     0.000,   1,1.0000
 14604,'1 ',     4.800,     0.000,     0.000,     0.000,1.05000,     0,     7.000,   0.00000,   0.15000,   0.00000,   0.10000,1.00000,0,    2.0,     4.800,     0.000,   5,1.0000
 14871,'1 ',     0.510,     0.000,     0.000,     0.000,1.05000,     0,     4.600,   0.02570,   0.73700,   0.00000,   0.00000,1.00000,1,    0.5,     1.700,     0.000,   7,1.0000
 15573,'1 ',     6.000,     0.000,     0.000,     0.000,1.04000,     0,    23.000,   0.02570,   0.73700,   0.00000,   0.00000,1.00000,1,    6.2,    20.000,     0.000,   7,1.0000
 15771,'1 ',     0.594,    -0.300,    -0.300,    -0.300,1.04000,  3581,     1.980,   0.02040,   0.33060,   0.00000,   0.00000,1.00000,1,    1.5,     1.980,     0.000,   7,1.0000
 15772,'1 ',     0.900,    -1.920,    -1.920,    -1.920,1.04000,  3581,     3.000,   0.02040,   0.33060,   0.00000,   0.00000,1.00000,1,    1.5,     3.000,     0.000,   7,1.0000
 16371,'1 ',     1.020,     0.000,     0.000,     0.000,1.00000,     0,     3.400,   0.00730,   0.13500,   0.00000,   0.00000,1.00000,1,    1.1,     3.400,     0.000,   7,1.0000
 16372,'2 ',     1.020,     0.000,     0.000,     0.000,1.00000,     0,     3.400,   0.00730,   0.13500,   0.00000,   0.00000,1.00000,1,    1.1,     3.400,     0.000,   7,1.0000
 16373,'3 ',     2.040,     0.000,     0.000,     0.000,1.00000,     0,     6.800,   0.00730,   0.13500,   0.00000,   0.00000,1.00000,1,    2.1,     6.800,     0.000,   7,1.0000
 16374,'4 ',     2.295,     0.000,     0.000,     0.000,1.00000,     0,     7.650,   0.00210,   0.08600,   0.00000,   0.00000,1.00000,1,    2.4,     7.650,     0.000,   7,1.0000
 16375,'1 ',     1.188,     0.000,     0.000,     0.000,1.00000,     0,     4.250,   0.00210,   0.08600,   0.00000,   0.00000,1.00000,1,    1.3,     3.960,     0.000,   7,1.0000
 16376,'6 ',     1.485,     0.000,     0.000,     0.000,1.00000,     0,     5.100,   0.00210,   0.08600,   0.00000,   0.00000,1.00000,1,    1.5,     4.950,     0.000,   7,1.0000
 16377,'1 ',     2.700,     0.000,     0.000,     0.000,1.00000,     0,     9.200,   0.02570,   0.73700,   0.00000,   0.00000,1.00000,1,    3.0,     9.000,     0.000,   7,1.0000
 16379,'2 ',     0.087,     0.000,     0.000,     0.000,1.00000,     0,     0.323,   0.00320,   0.12400,   0.00000,   0.00000,1.00000,1,    1.3,     0.290,     0.000,   7,1.0000
 16571,'1 ',    11.340,     0.000,     0.000,     0.000,1.05000,  1651,    40.000,   0.02570,   0.73700,   0.00000,   0.00000,1.00000,1,   12.6,    37.800,     0.000,   7,1.0000
 16670,'1 ',     1.350,    -1.075,     0.000,    -3.070,1.00000,     0,     4.500,   0.03020,   0.86600,   0.00000,   0.00000,1.00000,1,    2.9,     4.500,     0.000,   7,1.0000
 16671,'1 ',     1.020,     0.000,     0.000,     0.000,1.04000,     0,     3.400,   0.00730,   0.13500,   0.00000,   0.00000,1.00000,1,    1.1,     3.400,     0.000,   7,1.0000
 16672,'2 ',     0.477,    -0.560,    -0.560,    -0.560,1.04000,     0,     1.700,   0.00730,   0.13500,   0.00000,   0.00000,1.00000,1,    0.5,     1.590,     0.000,   7,1.0000
 16674,'1 ',     5.610,     0.000,     0.000,     0.000,1.04000,     0,    18.700,   0.00730,   0.13500,   0.00000,   0.00000,1.00000,1,    5.8,    18.700,     0.000,   7,1.0000
 16675,'2 ',     2.400,    -2.650,    -2.650,    -2.650,1.04000,     0,     8.000,   0.02690,   0.76900,   0.00000,   0.00000,1.00000,1,    2.7,     8.000,     0.000,   7,1.0000
 16873,'3 ',     8.000,     0.000,     7.000,    -1.000,1.05000,  1681,    11.500,   0.00000,   0.25000,   0.00000,   0.00000,1.00000,0,    7.0,     8.000,     2.000,   3,1.0000
 17073,'3 ',    22.500,     0.000,    15.000,    -5.000,1.05000,  1701,    30.000,   0.00410,   0.20000,   0.00000,   0.00000,1.00000,0,    7.0,    22.500,     5.000,   3,1.0000
 17074,'4 ',    22.500,     0.000,    23.000,   -25.000,1.05000,  1701,    35.500,   0.00410,   0.18000,   0.00000,   0.00000,1.00000,0,    7.0,    22.500,     5.000,   3,1.0000
 17075,'7 ',     0.594,    -0.800,    -0.800,    -0.800,1.00000,     0,     1.980,   0.02040,   0.33060,   0.00000,   0.00000,1.00000,1,    0.6,     1.980,     0.000,   7,1.0000
 17077,'8 ',     0.006,     0.000,     0.000,     0.000,1.00000,     0,     1.200,   0.03020,   0.86600,   0.00000,   0.00000,1.00000,1,    0.3,     0.020,     0.000,   7,1.0000
 17671,'1 ',    10.000,     0.000,     7.000,    -3.000,1.05000,  1701,    12.500,   0.00000,   0.15000,   0.00000,   0.00000,1.00000,0,    7.0,    10.000,     3.000,   3,1.0000
 17672,'2 ',    10.000,     0.000,     7.000,    -3.000,1.05000,  1701,    12.500,   0.00000,   0.13500,   0.00000,   0.00000,1.00000,0,    7.0,    10.000,     3.000,   3,1.0000
 18471,'1 ',     1.497,     0.000,     0.000,     0.000,1.04000,     0,     5.200,   0.00550,   0.14300,   0.00000,   0.00000,1.00000,1,    1.5,     4.990,     0.000,   7,1.0000
 19081,'1 ',     0.765,     0.000,     0.000,     0.000,1.04000,     0,     2.550,   0.00730,   0.13500,   0.00000,   0.00000,1.00000,1,    0.8,     2.550,     0.000,   7,1.0000
 19082,'2 ',     0.510,     0.000,     0.000,     0.000,1.05000,     0,     1.700,   0.00730,   0.13500,   0.00000,   0.00000,1.00000,1,    0.5,     1.700,     0.000,   7,1.0000
 19083,'1 ',     1.497,     0.000,     0.000,     0.000,1.04000,     0,     6.900,   0.02570,   0.73700,   0.00000,   0.00000,1.00000,1,    1.6,     4.990,     0.000,   7,1.0000
 19084,'2 ',     1.350,    -1.500,    -1.500,    -1.500,1.04000,     0,     4.600,   0.02570,   0.73700,   0.00000,   0.00000,1.00000,1,    1.6,     4.500,     0.000,   7,1.0000
 19085,'1 ',     6.300,    -7.000,    -7.000,    -7.000,1.04000,     0,    23.824,   0.00220,   0.41940,   0.00000,   0.00000,1.00000,1,    6.6,    21.000,     0.000,   7,1.0000
 19317,'SC',     0.000,    -0.505,     6.000,    -6.000,1.05000,  1931,     6.000,   0.00000,9999.00000,   0.00000,   0.00000,1.00000,1,    6.0,     0.000,     0.000,   1,1.0000
 19371,'1 ',     7.125,     0.000,     0.000,     0.000,1.05000,  1931,    29.780,   0.00220,   0.41940,   0.00000,   0.00000,1.00000,1,   11.0,    23.750,     0.000,   7,1.0000
 19372,'2 ',     3.315,     0.000,     0.000,     0.000,1.05000,  1931,    11.050,   0.00730,   0.13500,   0.00000,   0.00000,1.00000,1,   11.6,    11.050,     0.000,   7,1.0000
 19471,'1 ',   120.000,    26.682,    94.000,   -50.000,1.07500,  1941,   153.000,   0.00000,   0.15300,   0.00000,   0.00000,1.00000,1,   75.0,   133.500,    60.000,   4,1.0000
 19472,'5 ',    58.274,     0.000,    38.000,   -23.000,1.07500,  1941,    66.625,   0.00200,   0.14450,   0.00000,   0.00000,1.00000,0,   41.0,    58.274,    19.700,   1,1.0000
 19473,'3 ',    58.274,     0.000,    40.000,   -23.000,1.07500,  1941,    66.625,   0.00200,   0.14450,   0.00000,   0.00000,1.00000,0,   41.0,    58.274,    19.700,   1,1.0000
 19601,'2 ',     0.585,     0.000,     0.000,     0.000,1.00000,     0,     6.500,   0.00000,   0.21900,   0.00000,   0.00000,1.00000,1,  100.0,     5.850,     0.000,   2,1.0000
 19771,'1 ',    12.750,     0.000,     0.000,     0.000,1.05000,  1971,    46.875,   0.00900,   0.16600,   0.00000,   0.00000,1.00000,1,    8.5,    42.500,     0.000,   7,1.0000
 19772,'TW',     2.550,    -0.579,     2.790,    -2.790,1.05000,  1971,     8.500,   0.00730,   0.13500,   0.00000,   0.00000,1.00000,1,    2.8,     8.500,     0.000,   7,1.0000
 19773,'TW',     9.000,    -2.049,     9.860,    -9.860,1.05000,  1971,    38.714,   0.00220,   0.41940,   0.00000,   0.00000,1.00000,1,    9.9,    30.000,     0.000,   7,1.0000
 19971,'1 ',     6.000,    -6.700,     6.700,    -6.700,1.05000,  1991,    20.700,   0.02570,   0.73700,   0.00000,   0.00000,1.00000,1,    6.7,    20.000,     0.000,   7,1.0000
 19972,'2 ',     0.690,     0.000,     0.000,     0.000,1.05000,  1991,     2.300,   0.02570,   0.73700,   0.00000,   0.00000,1.00000,1,    0.7,     2.300,     0.000,   7,1.0000
 19973,'3 ',     0.690,     0.000,     0.000,     0.000,1.05000,  1991,     2.300,   0.02570,   0.73700,   0.00000,   0.00000,1.00000,1,    1.1,     2.300,     0.000,   7,1.0000
 19974,'4 ',     4.830,    -4.000,     4.000,    -4.000,1.05000,  1991,    16.100,   0.02570,   0.73700,   0.00000,   0.00000,1.00000,1,    4.0,    16.100,     0.000,   7,1.0000
 21071,'2 ',     0.150,     0.000,     0.000,     0.000,1.05000,     0,     0.850,   0.00730,   0.13500,   0.00000,   0.00000,1.00000,1,    0.2,     0.500,     0.000,   7,1.0000
 21371,'TW',     8.550,    -9.500,     9.500,    -9.500,1.05000,  2131,    31.730,   0.00920,   0.16210,   0.00000,   0.00000,1.00000,1,    9.5,    28.500,     0.000,   7,1.0000
 21871,'1 ',     0.510,     0.000,     0.000,     0.000,1.01000,     0,     1.700,   0.00730,   0.13500,   0.00000,   0.00000,1.00000,1,    0.5,     1.700,     0.000,   7,1.0000
 21872,'2 ',     0.750,    -0.990,    -0.990,    -1.280,1.01000,     0,     2.700,   0.03020,   0.86600,   0.00000,   0.00000,1.00000,1,    0.9,     2.500,     0.000,   7,1.0000
 22273,'DW',     1.350,    -1.020,     0.000,    -1.480,1.00000,     0,     4.000,   0.02690,   0.76900,   0.00000,   0.00000,1.00000,1,    1.4,     4.500,     0.000,   7,1.0000
 22274,'2 ',     1.782,    -2.400,    -2.400,    -2.400,1.00000,     0,     5.940,   0.02040,   0.33060,   0.00000,   0.00000,1.00000,1,    1.9,     5.940,     0.000,   7,1.0000
 22275,'4 ',     1.275,     0.000,     0.000,     0.000,1.00000,     0,     4.250,   0.00730,   0.13500,   0.00000,   0.00000,1.00000,1,    1.3,     4.250,     0.000,   7,1.0000
 22276,'3 ',     1.785,     0.000,     0.000,     0.000,1.00000,     0,     6.680,   0.00920,   0.16210,   0.00000,   0.00000,1.00000,1,    1.9,     5.950,     0.000,   7,1.0000
 22278,'1 ',     1.386,    -1.000,    -1.000,    -1.000,1.00000,     0,     4.620,   0.02040,   0.33060,   0.00000,   0.00000,1.00000,1,    1.4,     4.620,     0.000,   7,1.0000
 22292,'5 ',     6.000,     0.000,     0.000,     0.000,1.00000,     0,     6.000,   0.00000,   0.20000,   0.00000,   0.10000,1.00000,0,    2.0,     6.000,     0.000,   1,1.0000
 22371,'1 ',    17.850,     0.000,     0.000,     0.000,1.05000,  2231,    59.500,   0.00730,   0.13500,   0.00000,   0.00000,1.00000,1,   12.0,    59.500,     0.000,   7,1.0000
 22471,'1 ',     0.765,     0.000,     0.000,     0.000,1.04000,     0,     2.550,   0.00730,   0.13500,   0.00000,   0.00000,1.00000,1,    0.8,     2.550,     0.000,   7,1.0000
 22472,'2 ',     1.275,     0.000,     0.000,     0.000,1.04000,     0,     4.250,   0.00730,   0.13500,   0.00000,   0.00000,1.00000,1,    1.3,     4.250,     0.000,   7,1.0000
 22671,'1 ',    52.100,     0.000,    32.600,   -22.700,1.05000,  2261,    62.000,   0.00000,   0.17900,   0.00000,   0.00000,1.00000,0,   32.6,    52.100,     1.200,   3,1.0000
 22672,'2 ',    52.100,     0.000,    32.600,   -22.700,1.05000,  2261,    62.000,   0.00000,   0.17900,   0.00000,   0.00000,1.00000,0,   32.6,    52.100,     1.200,   3,1.0000
 22871,'1 ',     0.720,    -0.840,    -0.840,    -1.090,1.01000,     0,     2.400,   0.02690,   0.76900,   0.00000,   0.00000,1.00000,1,    0.8,     2.400,     0.000,   7,1.0000
 26771,'1 ',     7.800,     4.483,    10.000,   -10.000,1.05000,  1631,    26.000,   0.00900,   0.14800,   0.00000,   0.00000,1.00000,1,   10.0,    26.000,     0.000,   7,1.0000
 26772,'1 ',     0.600,     0.000,     0.000,     0.000,1.07500,  2671,     6.000,   0.00900,   0.14800,   0.00000,   0.00000,1.00000,1,    2.0,     6.000,     6.000,   1,1.0000
 26773,'1 ',     6.600,     4.483,    10.000,   -10.000,1.05000,  1631,    22.000,   0.00900,   0.14800,   0.00000,   0.00000,1.00000,1,   10.0,    22.000,     0.000,   7,1.0000
 26774,'1 ',     0.600,     0.000,     0.000,     0.000,1.07500,  2671,     6.000,   0.00900,   0.14800,   0.00000,   0.00000,1.00000,1,  100.0,     6.000,     6.000,   1,1.0000
 27071,'1 ',     0.240,     0.000,     0.000,     0.000,1.00000,     0,     0.800,   0.02690,   0.76900,   0.00000,   0.00000,1.00000,1,  100.0,     0.800,     0.000,   7,1.0000
 27204,'5 ',     4.000,     0.000,     1.000,    -1.000,1.04000,     0,     5.000,   0.00000,   0.27000,   0.00000,   0.10000,1.00000,0,    1.0,     4.000,     0.000,   3,1.0000
 27361,'SC',     0.000,     0.000,    12.300,   -12.300,1.05000,  1971,    12.300,   0.00000,9999.00000,   0.00000,   0.00000,1.00000,0,   12.3,     0.000,     0.000,   1,1.0000
 27371,'1 ',     3.840,     0.000,     0.000,     0.000,1.05000,  1971,    14.450,   0.00730,   0.13500,   0.00000,   0.00000,1.00000,1,    4.0,    12.800,     0.000,   7,1.0000
 27372,'2 ',     5.100,     0.000,     0.000,     0.000,1.05000,  1971,    18.750,   0.00900,   0.16600,   0.00000,   0.00000,1.00000,1,    5.3,    17.000,     0.000,   7,1.0000
 27471,'1 ',    57.000,     0.000,    42.000,    -3.000,1.07500,  2741,    75.000,   0.00000,   0.16000,   0.00000,   0.00000,1.00000,0,   42.0,    57.000,    25.000,   3,1.0000
 27472,'2 ',    51.800,     0.000,    40.000,    -3.000,1.07500,  2741,    75.000,   0.00000,   0.16000,   0.00000,   0.00000,1.00000,0,   40.0,    51.800,    25.000,   3,1.0000
 27473,'3 ',   121.000,     0.000,    82.000,   -48.000,1.07500,  2742,   150.000,   0.00000,   0.14600,   0.00000,   0.00000,1.00000,0,   82.0,   121.000,    30.000,   3,1.0000
 27771,'1 ',    12.367,    -2.690,    13.000,   -13.610,1.05000,  1971,    41.400,   0.00000,   0.50400,   0.00000,   0.00000,1.00000,1,   13.0,    41.225,     0.000,   7,1.0000
 27772,'2 ',     3.000,    -2.000,    -2.000,    -2.000,1.00000,     0,    11.912,   0.00220,   0.41940,   0.00000,   0.00000,1.00000,1,    3.1,    10.000,     0.000,   7,1.0000
 27773,'3 ',     1.500,    -1.000,    -1.000,    -1.000,1.00000,     0,     4.600,   0.02570,   0.73700,   0.00000,   0.00000,1.00000,1,    1.6,     5.000,     0.000,   7,1.0000
 27774,'4 ',     5.400,    -3.000,    -3.000,    -3.000,1.05000,  1971,    18.400,   0.00000,   0.50400,   0.00000,   0.00000,1.00000,1,    6.1,    18.000,     0.000,   7,1.0000
 27871,'1 ',     0.990,    -0.700,    -0.700,    -0.700,1.04000,     0,     3.300,   0.02040,   0.33060,   0.00000,   0.00000,1.00000,1,    1.0,     3.300,     0.000,   7,1.0000
 28071,'1 ',     4.500,    -6.000,    -6.000,    -6.000,1.05000,  2801,    15.000,   0.02040,   0.33060,   0.00000,   0.00000,1.00000,1,    6.6,    15.000,     0.000,   7,1.0000
 28271,'1 ',     0.900,    -1.200,    -1.200,    -1.200,1.04000,     0,     3.340,   0.00920,   0.16210,   0.00000,   0.00000,1.00000,1,    0.9,     3.000,     0.000,   7,1.0000
 28571,'1 ',   300.000,   -47.357,   282.100,  -190.000,1.04000,  1062,   535.500,   0.00280,   0.18780,   0.00000,   0.00000,1.00000,1,  282.1,   450.500,   110.100,   4,1.0000
 28872,'1 ',     3.150,     0.000,     0.000,     0.000,1.00000,     0,    13.800,   0.00900,   0.14800,   0.00000,   0.00000,1.00000,1,    3.3,    10.500,     0.000,   7,1.0000
 28873,'DW',     4.950,    -5.420,     5.420,    -5.420,1.00000,     0,    18.400,   0.00900,   0.14800,   0.00000,   0.00000,1.00000,1,    5.2,    16.500,     0.000,   7,1.0000
 28874,'1 ',     7.800,     0.000,     0.000,     0.000,1.00000,     0,    27.600,   0.00770,   0.18710,   0.00000,   0.00000,1.00000,1,    7.9,    26.000,     0.000,   7,1.0000
 29671,'ST',   100.000,    -1.485,   107.000,   -53.000,1.07500,  2562,   150.000,   0.00000,   0.15500,   0.00000,   0.00000,1.00000,1,   90.0,   123.000,    40.000,   4,1.0000
 29672,'CT',   200.000,    -2.855,   181.000,   -87.000,1.07500,  2562,   288.000,   0.00000,   0.14500,   0.00000,   0.00000,1.00000,1,  173.0,   236.200,   138.000,   4,1.0000
 29673,'2 ',   300.000,    83.671,   255.000,  -170.000,1.07500,  2042,   473.000,   0.00500,   0.21300,   0.00000,   0.00000,1.00000,1,  249.0,   400.000,   194.000,   4,1.0000
 30671,'1 ',    15.000,     0.000,    13.000,    -4.000,1.05000,  3061,    21.400,   0.00000,   0.16000,   0.00000,   0.00000,1.00000,0,   13.0,    15.000,     4.000,   3,1.0000
 30671,'2 ',     4.000,     0.000,     3.000,    -1.000,1.05000,  3061,     5.700,   0.00000,   0.14000,   0.00000,   0.00000,1.00000,0,   13.0,     4.000,     1.000,   3,1.0000
 31071,'1 ',     0.765,     0.000,     0.000,     0.000,1.01000,     0,     2.550,   0.00730,   0.13500,   0.00000,   0.00000,1.00000,1,    0.8,     2.550,     0.000,   7,1.0000
 31074,'1 ',     0.765,     0.000,     0.000,     0.000,1.04000,     0,     2.550,   0.00730,   0.13500,   0.00000,   0.00000,1.00000,1,    0.8,     2.550,     0.000,   7,1.0000
 31271,'1 ',   300.000,   257.673,   295.000,  -100.000,1.07500,  3122,   500.000,   0.00300,   0.19000,   0.00000,   0.00000,1.00000,1,  200.0,   409.900,   163.000,   4,1.0000
...